tests/data/power_flow/handling-of-links-merge-nodes-by-links-2-lines/sym_output_batch.json
{
    "version": "1.0",
    "type": "sym_output",
    "is_batch": false,
    "attributes": {},
    "data": [
        {
            "node": [
                {
                    "id": 1,
                    "energized": 1,
                    "u_pu": 0.9989458249787747,
                    "u": 10488.931162277135,
                    "u_angle": -0.0030472451589675215,
                    "p": 31332434.50190703,
                    "q": 7403305.263795253
                },
                {
                    "id": 2,
                    "energized": 1,
                    "u_pu": 0.9989458249787747,
                    "u": 10488.931162277135,
                    "u_angle": -0.0030472451589675215,
                    "p": 0,
                    "q": 0
                },
                {
                    "id": 3,
                    "energized": 1,
                    "u_pu": 0.9989458249787747,
                    "u": 10488.931162277135,
                    "u_angle": -0.0030472451589675215,
                    "p": 0,
                    "q": 0
                },
                {
                    "id": 4,
                    "energized": 1,
                    "u_pu": 0.9989458249787747,
                    "u": 10488.931162277135,
                    "u_angle": -0.0030472451589675215,
                    "p": 0,
                    "q": 0
                },
                {
                    "id": 5,
                    "energized": 1,
                    "u_pu": 0.9410489063634384,
                    "u": 9881.013516816103,
                    "u_angle": -0.029954262188011137,
                    "p": -20000000.00000004,
                    "q": -5000000.000000036
                },
                {
                    "id": 6,
                    "energized": 1,
                    "u_pu": 0.9720886283863467,
                    "u": 10206.93059805664,
                    "u_angle": -0.01744074551105466,
                    "p": -10000000.000000019,
                    "q": -1999999.9999999995
                },
                {
                    "id": 7,
                    "energized": 1,
                    "u_pu": 0.9720886283863467,
                    "u": 10206.93059805664,
                    "u_angle": -0.01744074551105466,
                    "p": 0,
                    "q": 0
                }
            ],
            "line": [
                {
                    "id": 12,
                    "energized": 1,
                    "loading": 1.2045708361780831,
                    "p_from": -20000000.00000004,
                    "q_from": -5000000.000000036,
                    "i_from": 1204.570836178083,
                    "s_from": 20615528.128088355,
                    "p_to": 21084376.409534942,
                    "q_to": 5541321.963769717,
                    "i_to": 1199.9757780930483,
                    "s_to": 21800393.980043348
                },
                {
                    "id": 13,
                    "energized": 1,
                    "loading": 0.5768473216299648,
                    "p_from": 10248058.09237208,
                    "q_from": 1861983.3000255346,
                    "i_from": 573.326933693381,
                    "s_from": 10415837.771116007,
                    "p_to": -10000000.000000019,
                    "q_to": -1999999.9999999995,
                    "i_to": 576.8473216299648,
                    "s_to": 10198039.027185587
                }
            ],
            "link": [
                {
                    "id": 8,
                    "energized": 1,
                    "loading": 0,
                    "p_from": 31332434.50190703,
                    "q_from": 7403305.263795253,
                    "i_from": 1772.144598437414,
                    "s_from": 32195191.88706961,
                    "p_to": -31332434.50190703,
                    "q_to": -7403305.263795253,
                    "i_to": 1772.144598437414,
                    "s_to": 32195191.88706961
                },
                {
                    "id": 9,
                    "energized": 1,
                    "loading": 0,
                    "p_from": 21084376.40953494,
                    "q_from": 5541321.963769717,
                    "i_from": 1199.975778093048,
                    "s_from": 21800393.98004335,
                    "p_to": -21084376.40953494,
                    "q_to": -5541321.963769717,
                    "i_to": 1199.975778093048,
                    "s_to": 21800393.98004335
                },
                {
                    "id": 10,
                    "energized": 1,
                    "loading": 0,
                    "p_from": -10248058.09237209,
                    "q_from": -1861983.300025536,
                    "i_from": 573.3269336933812,
                    "s_from": 10415837.77111601,
                    "p_to": 10248058.09237209,
                    "q_to": 1861983.300025536,
                    "i_to": 573.3269336933812,
                    "s_to": 10415837.77111601
                },
                {
                    "id": 11,
                    "energized": 1,
                    "loading": 0,
                    "p_from": 10000000,
                    "q_from": 2000000,
                    "i_from": 576.847321629964,
                    "s_from": 10198039.02718557,
                    "p_to": -10000000,
                    "q_to": -2000000,
                    "i_to": 576.847321629964,
                    "s_to": 10198039.02718557
                }
            ],
            "sym_load": [
                {
                    "id": 14,
                    "energized": 1,
                    "p": 20000000,
                    "q": 5000000,
                    "i": 1204.57083617808,
                    "s": 20615528.128088303,
                    "pf": 0.9701425001453319
                },
                {
                    "id": 15,
                    "energized": 1,
                    "p": 10000000,
                    "q": 2000000,
                    "i": 576.8473216299639,
                    "s": 10198039.027185569,
                    "pf": 0.9805806756909202
                }
            ],
            "source": [
                {
                    "id": 16,
                    "energized": 1,
                    "p": 31332434.50190703,
                    "q": 7403305.263795253,
                    "i": 1772.1445984374143,
                    "s": 32195191.887069605,
                    "pf": 0.9732022909449072
                }
            ]
        },
        {
            "node": [
                {
                    "id": 1,
                    "energized": 1,
                    "u_pu": 0.9989458249787747,
                    "u": 10488.931162277135,
                    "u_angle": -0.0030472451589675215,
                    "p": 31332434.50190703,
                    "q": 7403305.263795253
                },
                {
                    "id": 2,
                    "energized": 1,
                    "u_pu": 0.9989458249787747,
                    "u": 10488.931162277135,
                    "u_angle": -0.0030472451589675215,
                    "p": 0,
                    "q": 0
                },
                {
                    "id": 3,
                    "energized": 1,
                    "u_pu": 0.9989458249787747,
                    "u": 10488.931162277135,
                    "u_angle": -0.0030472451589675215,
                    "p": 0,
                    "q": 0
                },
                {
                    "id": 4,
                    "energized": 1,
                    "u_pu": 0.9989458249787747,
                    "u": 10488.931162277135,
                    "u_angle": -0.0030472451589675215,
                    "p": 0,
                    "q": 0
                },
                {
                    "id": 5,
                    "energized": 1,
                    "u_pu": 0.9410489063634384,
                    "u": 9881.013516816103,
                    "u_angle": -0.029954262188011137,
                    "p": -20000000.00000004,
                    "q": -5000000.000000036
                },
                {
                    "id": 6,
                    "energized": 1,
                    "u_pu": 0.9720886283863467,
                    "u": 10206.93059805664,
                    "u_angle": -0.01744074551105466,
                    "p": -10000000.000000019,
                    "q": -1999999.9999999995
                },
                {
                    "id": 7,
                    "energized": 1,
                    "u_pu": 0.9720886283863467,
                    "u": 10206.93059805664,
                    "u_angle": -0.01744074551105466,
                    "p": 0,
                    "q": 0
                }
            ],
            "line": [
                {
                    "id": 12,
                    "energized": 1,
                    "loading": 1.2045708361780831,
                    "p_from": -20000000.00000004,
                    "q_from": -5000000.000000036,
                    "i_from": 1204.570836178083,
                    "s_from": 20615528.128088355,
                    "p_to": 21084376.409534942,
                    "q_to": 5541321.963769717,
                    "i_to": 1199.9757780930483,
                    "s_to": 21800393.980043348
                },
                {
                    "id": 13,
                    "energized": 1,
                    "loading": 0.5768473216299648,
                    "p_from": 10248058.09237208,
                    "q_from": 1861983.3000255346,
                    "i_from": 573.326933693381,
                    "s_from": 10415837.771116007,
                    "p_to": -10000000.000000019,
                    "q_to": -1999999.9999999995,
                    "i_to": 576.8473216299648,
                    "s_to": 10198039.027185587
                }
            ],
            "link": [
                {
                    "id": 8,
                    "energized": 1,
                    "loading": 0,
                    "p_from": 31332434.50190703,
                    "q_from": 7403305.263795253,
                    "i_from": 1772.144598437414,
                    "s_from": 32195191.88706961,
                    "p_to": -31332434.50190703,
                    "q_to": -7403305.263795253,
                    "i_to": 1772.144598437414,
                    "s_to": 32195191.88706961
                },
                {
                    "id": 9,
                    "energized": 1,
                    "loading": 0,
                    "p_from": 21084376.40953494,
                    "q_from": 5541321.963769717,
                    "i_from": 1199.975778093048,
                    "s_from": 21800393.98004335,
                    "p_to": -21084376.40953494,
                    "q_to": -5541321.963769717,
                    "i_to": 1199.975778093048,
                    "s_to": 21800393.98004335
                },
                {
                    "id": 10,
                    "energized": 1,
                    "loading": 0,
                    "p_from": -10248058.09237209,
                    "q_from": -1861983.300025536,
                    "i_from": 573.3269336933812,
                    "s_from": 10415837.77111601,
                    "p_to": 10248058.09237209,
                    "q_to": 1861983.300025536,
                    "i_to": 573.3269336933812,
                    "s_to": 10415837.77111601
                },
                {
                    "id": 11,
                    "energized": 1,
                    "loading": 0,
                    "p_from": 10000000,
                    "q_from": 2000000,
                    "i_from": 576.847321629964,
                    "s_from": 10198039.02718557,
                    "p_to": -10000000,
                    "q_to": -2000000,
                    "i_to": 576.847321629964,
                    "s_to": 10198039.02718557
                }
            ],
            "sym_load": [
                {
                    "id": 14,
                    "energized": 1,
                    "p": 20000000,
                    "q": 5000000,
                    "i": 1204.57083617808,
                    "s": 20615528.128088303,
                    "pf": 0.9701425001453319
                },
                {
                    "id": 15,
                    "energized": 1,
                    "p": 10000000,
                    "q": 2000000,
                    "i": 576.8473216299639,
                    "s": 10198039.027185569,
                    "pf": 0.9805806756909202
                }
            ],
            "source": [
                {
                    "id": 16,
                    "energized": 1,
                    "p": 31332434.50190703,
                    "q": 7403305.263795253,
                    "i": 1772.1445984374143,
                    "s": 32195191.887069605,
                    "pf": 0.9732022909449072
                }
            ]
        }
    ]
}
